#======================================================================

# CRYSTAL DATA

#----------------------------------------------------------------------

data_VESTA_phase_1


_chemical_name_common                  'New structure'
_cell_length_a                         11.28039
_cell_length_b                         6.53947
_cell_length_c                         11.39468
_cell_angle_alpha                      90.16580
_cell_angle_beta                       98.05338
_cell_angle_gamma                      89.90017
_space_group_name_H-M_alt              'P 1'
_space_group_IT_number                 1

loop_
_space_group_symop_operation_xyz
   'x, y, z'

loop_
   _atom_site_label
   _atom_site_occupancy
   _atom_site_fract_x
   _atom_site_fract_y
   _atom_site_fract_z
   _atom_site_adp_type
   _atom_site_B_iso_or_equiv
   _atom_site_type_symbol
   C          1.0     0.153412      0.561223      0.069438     Biso  1.000000 C
   C          1.0     0.846925      0.060974      0.430514     Biso  1.000000 C
   C          1.0     0.846588      0.438777      0.930561     Biso  1.000000 C
   C          1.0     0.153075      0.939026      0.569487     Biso  1.000000 C
   C          1.0     0.246404      0.481045      0.012054     Biso  1.000000 C
   C          1.0     0.754198      0.981352      0.488031     Biso  1.000000 C
   C          1.0     0.753596      0.518955      0.987946     Biso  1.000000 C
   C          1.0     0.245803      0.018648      0.511969     Biso  1.000000 C
   C          1.0     0.298474      0.292926      0.044837     Biso  1.000000 C
   C          1.0     0.702290      0.793095      0.455207     Biso  1.000000 C
   C          1.0     0.701526      0.707073      0.955163     Biso  1.000000 C
   C          1.0     0.297710      0.206905      0.544794     Biso  1.000000 C
   C          1.0     0.261114      0.182975      0.137797     Biso  1.000000 C
   C          1.0     0.739534      0.682472      0.362021     Biso  1.000000 C
   C          1.0     0.738886      0.817025      0.862203     Biso  1.000000 C
   C          1.0     0.260466      0.317528      0.637980     Biso  1.000000 C
   C          1.0     0.170128      0.260042      0.196866     Biso  1.000000 C
   C          1.0     0.830267      0.758974      0.302807     Biso  1.000000 C
   C          1.0     0.829872      0.739958      0.803134     Biso  1.000000 C
   C          1.0     0.169733      0.241026      0.697193     Biso  1.000000 C
   C          1.0     0.116761      0.446093      0.162044     Biso  1.000000 C
   C          1.0     0.883517      0.945096      0.337702     Biso  1.000000 C
   C          1.0     0.883239      0.553907      0.837956     Biso  1.000000 C
   C          1.0     0.116483      0.054904      0.662299     Biso  1.000000 C
   C          1.0     0.088924      0.756880      0.039108     Biso  1.000000 C
   C          1.0     0.911242      0.256739      0.460863     Biso  1.000000 C
   C          1.0     0.911076      0.243120      0.960891     Biso  1.000000 C
   C          1.0     0.088758      0.743261      0.539138     Biso  1.000000 C
   C          1.0     0.370543      0.732496      0.943185     Biso  1.000000 C
   C          1.0     0.629376      0.233003      0.557036     Biso  1.000000 C
   C          1.0     0.629457      0.267504      0.056814     Biso  1.000000 C
   C          1.0     0.370624      0.766997      0.442964     Biso  1.000000 C
   C          1.0     0.399226      0.832734      0.832926     Biso  1.000000 C
   C          1.0     0.600076      0.333459      0.667345     Biso  1.000000 C
   C          1.0     0.600774      0.167266      0.167074     Biso  1.000000 C
   C          1.0     0.399924      0.666542      0.332655     Biso  1.000000 C
   O          1.0     0.120946      0.860492      0.949463     Biso  1.000000 O
   O          1.0     0.879160      0.361236      0.550582     Biso  1.000000 O
   O          1.0     0.879054      0.139508      0.050536     Biso  1.000000 O
   O          1.0     0.120840      0.638763      0.449418     Biso  1.000000 O
   O          1.0     0.008888      0.815190      0.096563     Biso  1.000000 O
   O          1.0     0.991158      0.314326      0.403359     Biso  1.000000 O
   O          1.0     0.991112      0.184810      0.903436     Biso  1.000000 O
   O          1.0     0.008843      0.685674      0.596641     Biso  1.000000 O
   O          1.0     0.286132      0.580486      0.916277     Biso  1.000000 O
   O          1.0     0.714400      0.081606      0.583902     Biso  1.000000 O
   O          1.0     0.713868      0.419514      0.083722     Biso  1.000000 O
   O          1.0     0.285600      0.918394      0.416098     Biso  1.000000 O
   O          1.0     0.413933      0.772108      0.044487     Biso  1.000000 O
   O          1.0     0.585987      0.271818      0.455729     Biso  1.000000 O
   O          1.0     0.586066      0.227892      0.955513     Biso  1.000000 O
   O          1.0     0.414013      0.728182      0.544271     Biso  1.000000 O
   H          1.0     0.368383      0.235004      0.996619     Biso  1.000000 H
   H          1.0     0.632445      0.735711      0.503413     Biso  1.000000 H
   H          1.0     0.631617      0.764996      0.003381     Biso  1.000000 H
   H          1.0     0.367556      0.264289      0.496587     Biso  1.000000 H
   H          1.0     0.302721      0.036096      0.162852     Biso  1.000000 H
   H          1.0     0.697993      0.535579      0.336869     Biso  1.000000 H
   H          1.0     0.697279      0.963904      0.837147     Biso  1.000000 H
   H          1.0     0.302007      0.464420      0.663132     Biso  1.000000 H
   H          1.0     0.140209      0.175686      0.269451     Biso  1.000000 H
   H          1.0     0.860072      0.674084      0.230030     Biso  1.000000 H
   H          1.0     0.859792      0.824314      0.730549     Biso  1.000000 H
   H          1.0     0.139927      0.325916      0.769971     Biso  1.000000 H
   H          1.0     0.044550      0.506784      0.205957     Biso  1.000000 H
   H          1.0     0.955576      1.005185      0.293681     Biso  1.000000 H
   H          1.0     0.955450      0.493216      0.794043     Biso  1.000000 H
   H          1.0     0.044424     -0.005185      0.706319     Biso  1.000000 H
   H          1.0     0.452706      0.969814      0.856904     Biso  1.000000 H
   H          1.0     0.546581      0.470627      0.643396     Biso  1.000000 H
   H          1.0     0.547294      0.030186      0.143095     Biso  1.000000 H
   H          1.0     0.453419      0.529373      0.356604     Biso  1.000000 H
   H          1.0     0.316712      0.871180      0.774491     Biso  1.000000 H
   H          1.0     0.682278      0.371678      0.726328     Biso  1.000000 H
   H          1.0     0.683288      0.128821      0.225508     Biso  1.000000 H
   H          1.0     0.317722      0.628322      0.273672     Biso  1.000000 H
   H          1.0     0.450380      0.727143      0.784059     Biso  1.000000 H
   H          1.0     0.548658      0.228003      0.715546     Biso  1.000000 H
   H          1.0     0.549619      0.272857      0.215941     Biso  1.000000 H
   H          1.0     0.451342      0.771997      0.284454     Biso  1.000000 H
   H          1.0     0.068600      0.989439      0.935501     Biso  1.000000 H
   H          1.0     0.931366      0.490135      0.564560     Biso  1.000000 H
   H          1.0     0.931400      0.010561      0.064498     Biso  1.000000 H
   H          1.0     0.068634      0.509865      0.435441     Biso  1.000000 H
