
#######################################################################
#
#                 Cambridge Crystallographic Data Centre
#                                CCDC 
#
#######################################################################
#
# If this CIF has been generated from an entry in the Cambridge 
# Structural Database, then it will include bibliographic, chemical, 
# crystal, experimental, refinement or atomic coordinate data resulting 
# from the CCDC's data processing and validation procedures.
#
#######################################################################

data_IZUZUZ
_symmetry_cell_setting           orthorhombic
_symmetry_space_group_name_H-M   'P b c a'
_symmetry_Int_Tables_number      61
_space_group_name_Hall           '-P 2ac 2ab'
loop_
_symmetry_equiv_pos_site_id
_symmetry_equiv_pos_as_xyz
1 x,y,z
2 1/2-x,-y,1/2+z
3 1/2+x,1/2-y,-z
4 -x,1/2+y,1/2-z
5 -x,-y,-z
6 1/2+x,y,1/2-z
7 1/2-x,1/2+y,z
8 x,1/2-y,1/2+z
_cell_length_a                   9.67390(18)
_cell_length_b                   19.3690(4)
_cell_length_c                   24.6898(17)
_cell_angle_alpha                90
_cell_angle_beta                 90
_cell_angle_gamma                90
_cell_volume                     4626.22
loop_
_atom_site_label
_atom_site_type_symbol
_atom_site_fract_x
_atom_site_fract_y
_atom_site_fract_z
O1 O 0.8064(3) 0.87631(14) 0.51740(11)
O2 O 0.9987(3) 0.87414(14) 0.56203(12)
O3 O 0.9725(3) 0.91506(13) 0.75276(11)
O4 O 0.8155(3) 0.98394(14) 0.78485(10)
O5 O 0.5260(3) 1.10627(13) 0.66411(11)
O6 O 0.4539(3) 1.05474(14) 0.59198(11)
N1 N 0.8778(3) 0.89198(15) 0.55623(13)
N2 N 0.8689(3) 0.95125(15) 0.74817(12)
N3 N 0.5361(3) 1.06170(15) 0.62900(12)
C1 C 0.6730(4) 1.00083(19) 0.53099(15)
H1 H 0.6388 1.0485 0.5305
H2 H 0.6011 0.9698 0.5172
H3 H 0.7553 0.9973 0.5080
C2 C 0.7095(3) 0.98076(17) 0.58807(14)
C3 C 0.8135(4) 0.93245(17) 0.59975(14)
C4 C 0.8662(3) 0.92092(17) 0.65184(15)
H4 H 0.9390 0.8890 0.6579
C5 C 0.8088(3) 0.95741(17) 0.69386(14)
C6 C 0.6999(3) 1.00271(17) 0.68604(14)
H5 H 0.6589 1.0264 0.7157
C7 C 0.6529(3) 1.01242(17) 0.63405(14)
O1 O 0.6936(3) 0.12369(14) 0.01740(11)
O2 O 0.5013(3) 0.12586(14) 0.06203(12)
O3 O 0.5275(3) 0.08494(13) 0.25276(11)
O4 O 0.6845(3) 0.01606(14) 0.28485(10)
O5 O 0.9740(3) -0.10627(13) 0.16411(11)
O6 O 1.0461(3) -0.05474(14) 0.09198(11)
N1 N 0.6222(3) 0.10802(15) 0.05623(13)
N2 N 0.6311(3) 0.04875(15) 0.24817(12)
N3 N 0.9639(3) -0.06170(15) 0.12900(12)
C1 C 0.8270(4) -0.00083(19) 0.03099(15)
H1 H 0.8612 -0.0485 0.0305
H2 H 0.8989 0.0302 0.0172
H3 H 0.7447 0.0027 0.0080
C2 C 0.7905(3) 0.01924(17) 0.08807(14)
C3 C 0.6865(4) 0.06755(17) 0.09975(14)
C4 C 0.6338(3) 0.07908(17) 0.15184(15)
H4 H 0.5610 0.1110 0.1579
C5 C 0.6912(3) 0.04259(17) 0.19386(14)
C6 C 0.8001(3) -0.00271(17) 0.18604(14)
H5 H 0.8411 -0.0264 0.2157
C7 C 0.8471(3) -0.01242(17) 0.13405(14)
O1 O 0.3064(3) 0.62369(14) 0.48260(11)
O2 O 0.4987(3) 0.62586(14) 0.43797(12)
O3 O 0.4725(3) 0.58494(13) 0.24724(11)
O4 O 0.3155(3) 0.51606(14) 0.21515(10)
O5 O 0.0260(3) 0.39373(13) 0.33589(11)
O6 O -0.0461(3) 0.44526(14) 0.40802(11)
N1 N 0.3778(3) 0.60802(15) 0.44377(13)
N2 N 0.3689(3) 0.54875(15) 0.25183(12)
N3 N 0.0361(3) 0.43830(15) 0.37100(12)
C1 C 0.1730(4) 0.49917(19) 0.46901(15)
H1 H 0.1388 0.4515 0.4695
H2 H 0.1011 0.5302 0.4828
H3 H 0.2553 0.5027 0.4920
C2 C 0.2095(3) 0.51924(17) 0.41193(14)
C3 C 0.3135(4) 0.56755(17) 0.40025(14)
C4 C 0.3662(3) 0.57908(17) 0.34816(15)
H4 H 0.4390 0.6110 0.3421
C5 C 0.3088(3) 0.54259(17) 0.30614(14)
C6 C 0.1999(3) 0.49729(17) 0.31396(14)
H5 H 0.1589 0.4736 0.2843
C7 C 0.1529(3) 0.48758(17) 0.36595(14)
O1 O 0.1936(3) 0.37631(14) 0.98260(11)
O2 O 0.0013(3) 0.37414(14) 0.93797(12)
O3 O 0.0275(3) 0.41506(13) 0.74724(11)
O4 O 0.1845(3) 0.48394(14) 0.71515(10)
O5 O 0.4740(3) 0.60627(13) 0.83589(11)
O6 O 0.5461(3) 0.55474(14) 0.90802(11)
N1 N 0.1222(3) 0.39198(15) 0.94377(13)
N2 N 0.1311(3) 0.45125(15) 0.75183(12)
N3 N 0.4639(3) 0.56170(15) 0.87100(12)
C1 C 0.3270(4) 0.50083(19) 0.96901(15)
H1 H 0.3612 0.5485 0.9695
H2 H 0.3989 0.4698 0.9828
H3 H 0.2447 0.4973 0.9920
C2 C 0.2905(3) 0.48076(17) 0.91193(14)
C3 C 0.1865(4) 0.43245(17) 0.90025(14)
C4 C 0.1338(3) 0.42092(17) 0.84816(15)
H4 H 0.0610 0.3890 0.8421
C5 C 0.1912(3) 0.45741(17) 0.80614(14)
C6 C 0.3001(3) 0.50271(17) 0.81396(14)
H5 H 0.3411 0.5264 0.7843
C7 C 0.3471(3) 0.51242(17) 0.86595(14)
O1 O 0.1936(3) 0.12369(14) 0.48260(11)
O2 O 0.0013(3) 0.12586(14) 0.43797(12)
O3 O 0.0275(3) 0.08494(13) 0.24724(11)
O4 O 0.1845(3) 0.01606(14) 0.21515(10)
O5 O 0.4740(3) -0.10627(13) 0.33589(11)
O6 O 0.5461(3) -0.05474(14) 0.40802(11)
N1 N 0.1222(3) 0.10802(15) 0.44377(13)
N2 N 0.1311(3) 0.04875(15) 0.25183(12)
N3 N 0.4639(3) -0.06170(15) 0.37100(12)
C1 C 0.3270(4) -0.00083(19) 0.46901(15)
H1 H 0.3612 -0.0485 0.4695
H2 H 0.3989 0.0302 0.4828
H3 H 0.2447 0.0027 0.4920
C2 C 0.2905(3) 0.01924(17) 0.41193(14)
C3 C 0.1865(4) 0.06755(17) 0.40025(14)
C4 C 0.1338(3) 0.07908(17) 0.34816(15)
H4 H 0.0610 0.1110 0.3421
C5 C 0.1912(3) 0.04259(17) 0.30614(14)
C6 C 0.3001(3) -0.00271(17) 0.31396(14)
H5 H 0.3411 -0.0264 0.2843
C7 C 0.3471(3) -0.01242(17) 0.36595(14)
O1 O 0.3064(3) 0.87631(14) 0.98260(11)
O2 O 0.4987(3) 0.87414(14) 0.93797(12)
O3 O 0.4725(3) 0.91506(13) 0.74724(11)
O4 O 0.3155(3) 0.98394(14) 0.71515(10)
O5 O 0.0260(3) 1.10627(13) 0.83589(11)
O6 O -0.0461(3) 1.05474(14) 0.90802(11)
N1 N 0.3778(3) 0.89198(15) 0.94377(13)
N2 N 0.3689(3) 0.95125(15) 0.75183(12)
N3 N 0.0361(3) 1.06170(15) 0.87100(12)
C1 C 0.1730(4) 1.00083(19) 0.96901(15)
H1 H 0.1388 1.0485 0.9695
H2 H 0.1011 0.9698 0.9828
H3 H 0.2553 0.9973 0.9920
C2 C 0.2095(3) 0.98076(17) 0.91193(14)
C3 C 0.3135(4) 0.93245(17) 0.90025(14)
C4 C 0.3662(3) 0.92092(17) 0.84816(15)
H4 H 0.4390 0.8890 0.8421
C5 C 0.3088(3) 0.95741(17) 0.80614(14)
C6 C 0.1999(3) 1.00271(17) 0.81396(14)
H5 H 0.1589 1.0264 0.7843
C7 C 0.1529(3) 1.01242(17) 0.86595(14)
O1 O 0.6936(3) 0.37631(14) 0.51740(11)
O2 O 0.5013(3) 0.37414(14) 0.56203(12)
O3 O 0.5275(3) 0.41506(13) 0.75276(11)
O4 O 0.6845(3) 0.48394(14) 0.78485(10)
O5 O 0.9740(3) 0.60627(13) 0.66411(11)
O6 O 1.0461(3) 0.55474(14) 0.59198(11)
N1 N 0.6222(3) 0.39198(15) 0.55623(13)
N2 N 0.6311(3) 0.45125(15) 0.74817(12)
N3 N 0.9639(3) 0.56170(15) 0.62900(12)
C1 C 0.8270(4) 0.50083(19) 0.53099(15)
H1 H 0.8612 0.5485 0.5305
H2 H 0.8989 0.4698 0.5172
H3 H 0.7447 0.4973 0.5080
C2 C 0.7905(3) 0.48076(17) 0.58807(14)
C3 C 0.6865(4) 0.43245(17) 0.59975(14)
C4 C 0.6338(3) 0.42092(17) 0.65184(15)
H4 H 0.5610 0.3890 0.6579
C5 C 0.6912(3) 0.45741(17) 0.69386(14)
C6 C 0.8001(3) 0.50271(17) 0.68604(14)
H5 H 0.8411 0.5264 0.7157
C7 C 0.8471(3) 0.51242(17) 0.63405(14)
O1 O 0.8064(3) 0.62369(14) 0.01740(11)
O2 O 0.9987(3) 0.62586(14) 0.06203(12)
O3 O 0.9725(3) 0.58494(13) 0.25276(11)
O4 O 0.8155(3) 0.51606(14) 0.28485(10)
O5 O 0.5260(3) 0.39373(13) 0.16411(11)
O6 O 0.4539(3) 0.44526(14) 0.09198(11)
N1 N 0.8778(3) 0.60802(15) 0.05623(13)
N2 N 0.8689(3) 0.54875(15) 0.24817(12)
N3 N 0.5361(3) 0.43830(15) 0.12900(12)
C1 C 0.6730(4) 0.49917(19) 0.03099(15)
H1 H 0.6388 0.4515 0.0305
H2 H 0.6011 0.5302 0.0172
H3 H 0.7553 0.5027 0.0080
C2 C 0.7095(3) 0.51924(17) 0.08807(14)
C3 C 0.8135(4) 0.56755(17) 0.09975(14)
C4 C 0.8662(3) 0.57908(17) 0.15184(15)
H4 H 0.9390 0.6110 0.1579
C5 C 0.8088(3) 0.54259(17) 0.19386(14)
C6 C 0.6999(3) 0.49729(17) 0.18604(14)
H5 H 0.6589 0.4736 0.2157
C7 C 0.6529(3) 0.48758(17) 0.13405(14)
O7 O 0.4738(2) 0.22015(14) 0.55684(11)
O8 O 0.3268(2) 0.25306(13) 0.49527(10)
O9 O 0.0033(3) 0.03897(12) 0.55746(11)
O10 O 0.1573(3) 0.01093(12) 0.61803(10)
O11 O 0.1792(3) 0.36942(13) 0.55258(11)
O12 O 0.0652(3) 0.39646(13) 0.62609(11)
O13 O 0.4484(2) 0.28623(12) 0.69223(10)
O14 O 0.2823(3) 0.31165(13) 0.74862(11)
O15 O -0.2581(2) 0.15125(13) 0.58448(11)
O16 O -0.2886(3) 0.24740(14) 0.62871(11)
O17 O 0.0079(2) 0.07327(12) 0.71047(11)
O18 O -0.0920(2) 0.16848(12) 0.73750(10)
N4 N 0.3578(3) 0.23322(14) 0.54087(11)
N5 N 0.2507(3) 0.22327(15) 0.57711(11)
N6 N 0.0875(3) 0.05156(14) 0.59318(12)
N7 N 0.1074(3) 0.12222(14) 0.60450(13)
N8 N 0.1020(3) 0.35742(15) 0.58999(13)
N9 N 0.0441(3) 0.29173(14) 0.59167(12)
N10 N 0.3279(3) 0.28863(14) 0.70653(12)
N11 N 0.2304(3) 0.26527(14) 0.66689(11)
N12 N -0.2191(3) 0.20087(15) 0.60960(12)
N13 N -0.0750(3) 0.20174(14) 0.62214(12)
N14 N 0.0006(3) 0.13619(15) 0.71560(11)
N15 N 0.1105(3) 0.17324(14) 0.69559(12)
C8 C 0.1087(3) 0.23549(17) 0.56125(14)
H6 H 0.1004 0.2428 0.5213
C9 C 0.0180(3) 0.17264(16) 0.58072(14)
H7 H -0.0358 0.1525 0.5499
C10 C 0.1907(3) 0.14316(17) 0.65037(15)
H8 H 0.2511 0.1045 0.6632
C11 C 0.2792(3) 0.20743(16) 0.63260(14)
H9 H 0.3801 0.1987 0.6383
C12 C -0.0172(3) 0.26624(17) 0.64201(14)
H10 H -0.0907 0.2980 0.6558
C13 C 0.0935(3) 0.24834(17) 0.68776(13)
H11 H 0.0733 0.2727 0.7226
O7 O 0.0262(2) 0.77985(14) 0.05684(11)
O8 O 0.1732(2) 0.74694(13) -0.00473(10)
O9 O 0.4967(3) 0.96103(12) 0.05746(11)
O10 O 0.3427(3) 0.98907(12) 0.11803(10)
O11 O 0.3208(3) 0.63058(13) 0.05258(11)
O12 O 0.4348(3) 0.60354(13) 0.12609(11)
O13 O 0.0516(2) 0.71377(12) 0.19223(10)
O14 O 0.2177(3) 0.68835(13) 0.24862(11)
O15 O 0.7581(2) 0.84875(13) 0.08448(11)
O16 O 0.7886(3) 0.75260(14) 0.12871(11)
O17 O 0.4921(2) 0.92673(12) 0.21047(11)
O18 O 0.5920(2) 0.83152(12) 0.23750(10)
N4 N 0.1422(3) 0.76678(14) 0.04087(11)
N5 N 0.2493(3) 0.77673(15) 0.07711(11)
N6 N 0.4125(3) 0.94844(14) 0.09318(12)
N7 N 0.3926(3) 0.87778(14) 0.10450(13)
N8 N 0.3980(3) 0.64258(15) 0.08999(13)
N9 N 0.4559(3) 0.70827(14) 0.09167(12)
N10 N 0.1721(3) 0.71137(14) 0.20653(12)
N11 N 0.2696(3) 0.73473(14) 0.16689(11)
N12 N 0.7191(3) 0.79913(15) 0.10960(12)
N13 N 0.5750(3) 0.79826(14) 0.12214(12)
N14 N 0.4994(3) 0.86381(15) 0.21560(11)
N15 N 0.3895(3) 0.82676(14) 0.19559(12)
C8 C 0.3913(3) 0.76451(17) 0.06125(14)
H6 H 0.3996 0.7572 0.0213
C9 C 0.4820(3) 0.82736(16) 0.08072(14)
H7 H 0.5358 0.8475 0.0499
C10 C 0.3093(3) 0.85684(17) 0.15037(15)
H8 H 0.2489 0.8955 0.1632
C11 C 0.2208(3) 0.79257(16) 0.13260(14)
H9 H 0.1199 0.8013 0.1383
C12 C 0.5172(3) 0.73376(17) 0.14201(14)
H10 H 0.5907 0.7020 0.1558
C13 C 0.4065(3) 0.75166(17) 0.18776(13)
H11 H 0.4267 0.7273 0.2226
O7 O 0.9738(2) 0.27985(14) 0.44316(11)
O8 O 0.8268(2) 0.24694(13) 0.50473(10)
O9 O 0.5033(3) 0.46103(12) 0.44254(11)
O10 O 0.6573(3) 0.48907(12) 0.38197(10)
O11 O 0.6792(3) 0.13058(13) 0.44742(11)
O12 O 0.5652(3) 0.10354(13) 0.37391(11)
O13 O 0.9484(2) 0.21377(12) 0.30777(10)
O14 O 0.7823(3) 0.18835(13) 0.25138(11)
O15 O 0.2419(2) 0.34875(13) 0.41552(11)
O16 O 0.2114(3) 0.25260(14) 0.37129(11)
O17 O 0.5079(2) 0.42673(12) 0.28953(11)
O18 O 0.4080(2) 0.33152(12) 0.26250(10)
N4 N 0.8578(3) 0.26678(14) 0.45913(11)
N5 N 0.7507(3) 0.27673(15) 0.42289(11)
N6 N 0.5875(3) 0.44844(14) 0.40682(12)
N7 N 0.6074(3) 0.37778(14) 0.39550(13)
N8 N 0.6020(3) 0.14258(15) 0.41001(13)
N9 N 0.5441(3) 0.20827(14) 0.40833(12)
N10 N 0.8279(3) 0.21137(14) 0.29347(12)
N11 N 0.7304(3) 0.23473(14) 0.33311(11)
N12 N 0.2809(3) 0.29913(15) 0.39040(12)
N13 N 0.4250(3) 0.29826(14) 0.37786(12)
N14 N 0.5006(3) 0.36381(15) 0.28440(11)
N15 N 0.6105(3) 0.32676(14) 0.30441(12)
C8 C 0.6087(3) 0.26451(17) 0.43875(14)
H6 H 0.6004 0.2572 0.4787
C9 C 0.5180(3) 0.32736(16) 0.41928(14)
H7 H 0.4642 0.3475 0.4501
C10 C 0.6907(3) 0.35684(17) 0.34963(15)
H8 H 0.7511 0.3955 0.3368
C11 C 0.7792(3) 0.29257(16) 0.36740(14)
H9 H 0.8801 0.3013 0.3617
C12 C 0.4828(3) 0.23376(17) 0.35799(14)
H10 H 0.4093 0.2020 0.3442
C13 C 0.5935(3) 0.25166(17) 0.31224(13)
H11 H 0.5733 0.2273 0.2774
O7 O 0.5262(2) 0.72015(14) 0.94316(11)
O8 O 0.6732(2) 0.75306(13) 1.00473(10)
O9 O 0.9967(3) 0.53897(12) 0.94254(11)
O10 O 0.8427(3) 0.51093(12) 0.88197(10)
O11 O 0.8208(3) 0.86942(13) 0.94742(11)
O12 O 0.9348(3) 0.89646(13) 0.87391(11)
O13 O 0.5516(2) 0.78623(12) 0.80777(10)
O14 O 0.7177(3) 0.81165(13) 0.75138(11)
O15 O 1.2581(2) 0.65125(13) 0.91552(11)
O16 O 1.2886(3) 0.74740(14) 0.87129(11)
O17 O 0.9921(2) 0.57327(12) 0.78953(11)
O18 O 1.0920(2) 0.66848(12) 0.76250(10)
N4 N 0.6422(3) 0.73322(14) 0.95913(11)
N5 N 0.7493(3) 0.72327(15) 0.92289(11)
N6 N 0.9125(3) 0.55156(14) 0.90682(12)
N7 N 0.8926(3) 0.62222(14) 0.89550(13)
N8 N 0.8980(3) 0.85742(15) 0.91001(13)
N9 N 0.9559(3) 0.79173(14) 0.90833(12)
N10 N 0.6721(3) 0.78863(14) 0.79347(12)
N11 N 0.7696(3) 0.76527(14) 0.83311(11)
N12 N 1.2191(3) 0.70087(15) 0.89040(12)
N13 N 1.0750(3) 0.70174(14) 0.87786(12)
N14 N 0.9994(3) 0.63619(15) 0.78440(11)
N15 N 0.8895(3) 0.67324(14) 0.80441(12)
C8 C 0.8913(3) 0.73549(17) 0.93875(14)
H6 H 0.8996 0.7428 0.9787
C9 C 0.9820(3) 0.67264(16) 0.91928(14)
H7 H 1.0358 0.6525 0.9501
C10 C 0.8093(3) 0.64316(17) 0.84963(15)
H8 H 0.7489 0.6045 0.8368
C11 C 0.7208(3) 0.70743(16) 0.86740(14)
H9 H 0.6199 0.6987 0.8617
C12 C 1.0172(3) 0.76624(17) 0.85799(14)
H10 H 1.0907 0.7980 0.8442
C13 C 0.9065(3) 0.74834(17) 0.81224(13)
H11 H 0.9267 0.7727 0.7774
O7 O 0.5262(2) 0.77985(14) 0.44316(11)
O8 O 0.6732(2) 0.74694(13) 0.50473(10)
O9 O 0.9967(3) 0.96103(12) 0.44254(11)
O10 O 0.8427(3) 0.98907(12) 0.38197(10)
O11 O 0.8208(3) 0.63058(13) 0.44742(11)
O12 O 0.9348(3) 0.60354(13) 0.37391(11)
O13 O 0.5516(2) 0.71377(12) 0.30777(10)
O14 O 0.7177(3) 0.68835(13) 0.25138(11)
O15 O 1.2581(2) 0.84875(13) 0.41552(11)
O16 O 1.2886(3) 0.75260(14) 0.37129(11)
O17 O 0.9921(2) 0.92673(12) 0.28953(11)
O18 O 1.0920(2) 0.83152(12) 0.26250(10)
N4 N 0.6422(3) 0.76678(14) 0.45913(11)
N5 N 0.7493(3) 0.77673(15) 0.42289(11)
N6 N 0.9125(3) 0.94844(14) 0.40682(12)
N7 N 0.8926(3) 0.87778(14) 0.39550(13)
N8 N 0.8980(3) 0.64258(15) 0.41001(13)
N9 N 0.9559(3) 0.70827(14) 0.40833(12)
N10 N 0.6721(3) 0.71137(14) 0.29347(12)
N11 N 0.7696(3) 0.73473(14) 0.33311(11)
N12 N 1.2191(3) 0.79913(15) 0.39040(12)
N13 N 1.0750(3) 0.79826(14) 0.37786(12)
N14 N 0.9994(3) 0.86381(15) 0.28440(11)
N15 N 0.8895(3) 0.82676(14) 0.30441(12)
C8 C 0.8913(3) 0.76451(17) 0.43875(14)
H6 H 0.8996 0.7572 0.4787
C9 C 0.9820(3) 0.82736(16) 0.41928(14)
H7 H 1.0358 0.8475 0.4501
C10 C 0.8093(3) 0.85684(17) 0.34963(15)
H8 H 0.7489 0.8955 0.3368
C11 C 0.7208(3) 0.79257(16) 0.36740(14)
H9 H 0.6199 0.8013 0.3617
C12 C 1.0172(3) 0.73376(17) 0.35799(14)
H10 H 1.0907 0.7020 0.3442
C13 C 0.9065(3) 0.75166(17) 0.31224(13)
H11 H 0.9267 0.7273 0.2774
O7 O 0.9738(2) 0.22015(14) 0.94316(11)
O8 O 0.8268(2) 0.25306(13) 1.00473(10)
O9 O 0.5033(3) 0.03897(12) 0.94254(11)
O10 O 0.6573(3) 0.01093(12) 0.88197(10)
O11 O 0.6792(3) 0.36942(13) 0.94742(11)
O12 O 0.5652(3) 0.39646(13) 0.87391(11)
O13 O 0.9484(2) 0.28623(12) 0.80777(10)
O14 O 0.7823(3) 0.31165(13) 0.75138(11)
O15 O 0.2419(2) 0.15125(13) 0.91552(11)
O16 O 0.2114(3) 0.24740(14) 0.87129(11)
O17 O 0.5079(2) 0.07327(12) 0.78953(11)
O18 O 0.4080(2) 0.16848(12) 0.76250(10)
N4 N 0.8578(3) 0.23322(14) 0.95913(11)
N5 N 0.7507(3) 0.22327(15) 0.92289(11)
N6 N 0.5875(3) 0.05156(14) 0.90682(12)
N7 N 0.6074(3) 0.12222(14) 0.89550(13)
N8 N 0.6020(3) 0.35742(15) 0.91001(13)
N9 N 0.5441(3) 0.29173(14) 0.90833(12)
N10 N 0.8279(3) 0.28863(14) 0.79347(12)
N11 N 0.7304(3) 0.26527(14) 0.83311(11)
N12 N 0.2809(3) 0.20087(15) 0.89040(12)
N13 N 0.4250(3) 0.20174(14) 0.87786(12)
N14 N 0.5006(3) 0.13619(15) 0.78440(11)
N15 N 0.6105(3) 0.17324(14) 0.80441(12)
C8 C 0.6087(3) 0.23549(17) 0.93875(14)
H6 H 0.6004 0.2428 0.9787
C9 C 0.5180(3) 0.17264(16) 0.91928(14)
H7 H 0.4642 0.1525 0.9501
C10 C 0.6907(3) 0.14316(17) 0.84963(15)
H8 H 0.7511 0.1045 0.8368
C11 C 0.7792(3) 0.20743(16) 0.86740(14)
H9 H 0.8801 0.1987 0.8617
C12 C 0.4828(3) 0.26624(17) 0.85799(14)
H10 H 0.4093 0.2980 0.8442
C13 C 0.5935(3) 0.24834(17) 0.81224(13)
H11 H 0.5733 0.2727 0.7774
O7 O 0.0262(2) 0.72015(14) 0.55684(11)
O8 O 0.1732(2) 0.75306(13) 0.49527(10)
O9 O 0.4967(3) 0.53897(12) 0.55746(11)
O10 O 0.3427(3) 0.51093(12) 0.61803(10)
O11 O 0.3208(3) 0.86942(13) 0.55258(11)
O12 O 0.4348(3) 0.89646(13) 0.62609(11)
O13 O 0.0516(2) 0.78623(12) 0.69223(10)
O14 O 0.2177(3) 0.81165(13) 0.74862(11)
O15 O 0.7581(2) 0.65125(13) 0.58448(11)
O16 O 0.7886(3) 0.74740(14) 0.62871(11)
O17 O 0.4921(2) 0.57327(12) 0.71047(11)
O18 O 0.5920(2) 0.66848(12) 0.73750(10)
N4 N 0.1422(3) 0.73322(14) 0.54087(11)
N5 N 0.2493(3) 0.72327(15) 0.57711(11)
N6 N 0.4125(3) 0.55156(14) 0.59318(12)
N7 N 0.3926(3) 0.62222(14) 0.60450(13)
N8 N 0.3980(3) 0.85742(15) 0.58999(13)
N9 N 0.4559(3) 0.79173(14) 0.59167(12)
N10 N 0.1721(3) 0.78863(14) 0.70653(12)
N11 N 0.2696(3) 0.76527(14) 0.66689(11)
N12 N 0.7191(3) 0.70087(15) 0.60960(12)
N13 N 0.5750(3) 0.70174(14) 0.62214(12)
N14 N 0.4994(3) 0.63619(15) 0.71560(11)
N15 N 0.3895(3) 0.67324(14) 0.69559(12)
C8 C 0.3913(3) 0.73549(17) 0.56125(14)
H6 H 0.3996 0.7428 0.5213
C9 C 0.4820(3) 0.67264(16) 0.58072(14)
H7 H 0.5358 0.6525 0.5499
C10 C 0.3093(3) 0.64316(17) 0.65037(15)
H8 H 0.2489 0.6045 0.6632
C11 C 0.2208(3) 0.70743(16) 0.63260(14)
H9 H 0.1199 0.6987 0.6383
C12 C 0.5172(3) 0.76624(17) 0.64201(14)
H10 H 0.5907 0.7980 0.6558
C13 C 0.4065(3) 0.74834(17) 0.68776(13)
H11 H 0.4267 0.7727 0.7226
O7 O 0.4738(2) 0.27985(14) 0.05684(11)
O8 O 0.3268(2) 0.24694(13) -0.00473(10)
O9 O 0.0033(3) 0.46103(12) 0.05746(11)
O10 O 0.1573(3) 0.48907(12) 0.11803(10)
O11 O 0.1792(3) 0.13058(13) 0.05258(11)
O12 O 0.0652(3) 0.10354(13) 0.12609(11)
O13 O 0.4484(2) 0.21377(12) 0.19223(10)
O14 O 0.2823(3) 0.18835(13) 0.24862(11)
O15 O -0.2581(2) 0.34875(13) 0.08448(11)
O16 O -0.2886(3) 0.25260(14) 0.12871(11)
O17 O 0.0079(2) 0.42673(12) 0.21047(11)
O18 O -0.0920(2) 0.33152(12) 0.23750(10)
N4 N 0.3578(3) 0.26678(14) 0.04087(11)
N5 N 0.2507(3) 0.27673(15) 0.07711(11)
N6 N 0.0875(3) 0.44844(14) 0.09318(12)
N7 N 0.1074(3) 0.37778(14) 0.10450(13)
N8 N 0.1020(3) 0.14258(15) 0.08999(13)
N9 N 0.0441(3) 0.20827(14) 0.09167(12)
N10 N 0.3279(3) 0.21137(14) 0.20653(12)
N11 N 0.2304(3) 0.23473(14) 0.16689(11)
N12 N -0.2191(3) 0.29913(15) 0.10960(12)
N13 N -0.0750(3) 0.29826(14) 0.12214(12)
N14 N 0.0006(3) 0.36381(15) 0.21560(11)
N15 N 0.1105(3) 0.32676(14) 0.19559(12)
C8 C 0.1087(3) 0.26451(17) 0.06125(14)
H6 H 0.1004 0.2572 0.0213
C9 C 0.0180(3) 0.32736(16) 0.08072(14)
H7 H -0.0358 0.3475 0.0499
C10 C 0.1907(3) 0.35684(17) 0.15037(15)
H8 H 0.2511 0.3955 0.1632
C11 C 0.2792(3) 0.29257(16) 0.13260(14)
H9 H 0.3801 0.3013 0.1383
C12 C -0.0172(3) 0.23376(17) 0.14201(14)
H10 H -0.0907 0.2020 0.1558
C13 C 0.0935(3) 0.25166(17) 0.18776(13)
H11 H 0.0733 0.2273 0.2226

#END
